/batch
/config,noeldb,1     ! force off writing results to database
*get,_wallstrt,active,,time,wall
! ANSYS input file written by Workbench version 13.0  Release
! File used for geometry attach: C:\Users\CHR\Dropbox\Ansys work\wind turbine blade\Wind turbine blade_files\dp0\SYS\DM\SYS.agdb
/title,Wind turbine blade--Static Structural (A5)
/com,--- Data in consistent MKS units.
/units,MKS
/nopr
/track,-1
/wb,file,start              !  signify a WB generated input file
/prep7
! Turn off shape checking because checks already performed inside WB mesher.
! See help system for more information.
SHPP,OFF,,NOWARN
/nolist
etcon,set             ! allow ANSYS to choose best KEYOP's for 180x elements
/com,*********** Nodes for the whole assembly ***********
nblock,3
(1i8,3e20.9e3)
       1    2.174827906E-001   -4.715001683E-002    3.825241126E+000
       2    7.173596153E-003   -1.182646919E-001    4.754391048E+000
       3   -2.265136329E-002   -1.216771042E-001    4.709888209E+000
       4    1.191537826E-001   -9.244637056E-002    1.789576528E+000
       5    1.046427349E-001   -9.147792724E-002    3.711533154E+000
       6    1.495248448E-001   -7.949434541E-002    2.265587256E+000
       7    1.468785920E-001   -8.715246122E-002    1.704694814E+000
       8    2.860402160E-001   -2.464996840E-002    4.321889734E+000
       9    1.265748965E-001   -8.298436576E-002    3.751371268E+000
      10   -1.486437720E-001   -1.144869105E-001    4.357101537E+000
      11    1.836573926E-001   -9.851106267E-002    8.567287682E-001
      12    6.403071262E-002   -1.161073134E-001    8.463338531E-001
      13    1.542320221E-001   -9.152312510E-002    1.379710703E+000
      14    2.182538478E-002   -1.136714009E-001    2.553266326E+000
      15    2.618584080E-003   -1.218213374E-001    1.079868888E+000
      16    2.289639894E-002   -1.136647986E-001    2.431451989E+000
      17   -1.582886534E-001   -9.247078203E-002    2.215470486E+000
      18    2.314163871E-001   -5.386100851E-002    5.477245917E-002
      19    1.542268853E-001   -1.116615123E-001    4.233917388E-001
      20   -1.426062657E-001   -1.155297119E-001    4.302322969E+000
! ... 4792 like lines cut
/wb,elem,start            !  set before creation of elements
/com,*********** Elements for Body 1 "Surface Body" ***********
et,1,181
keyo,1,3,2
eblock,19,solid
(19i8)
       1       1       1       1       0       0       0       0       4       0       1    4806    4797    4807    4807
       1       1       1       1       0       0       0       0       4       0      21    4775    4785    4786    4786
       1       1       1       1       0       0       0       0       4       0     240    4568    4566    4567    4567
       1       1       1       1       0       0       0       0       4       0     241    4467    4468    4516    4516
       1       1       1       1       0       0       0       0       4       0     242    4502    4577    4501    4501
       1       1       1       1       0       0       0       0       4       0     243    4571    4374    4570    4570
       1       1       1       1       0       0       0       0       4       0     787    4071    4059    4036    4036
       1       1       1       1       0       0       0       0       4       0     788    4066    4056    4065    4065
       1       1       1       1       0       0       0       0       4       0     916    3902    3900    3901    3901
       1       1       1       1       0       0       0       0       4       0     917    3747    3771    3746    3746
       1       1       1       1       0       0       0       0       4       0     918    3838    3955    3773    3773
       1       1       1       1       0       0       0       0       4       0     919    3945    3946    3622    3622
       1       1       1       1       0       0       0       0       4       0     920    3620    3951    3952    3952
       1       1       1       1       0       0       0       0       4       0     921    3477    3478    3606    3606
       1       1       1       1       0       0       0       0       4       0     922    3772    3844    3845    3845
       1       1       1       1       0       0       0       0       4       0     923    3096    3916    3915    3915
       1       1       1       1       0       0       0       0       4       0     924    3869    3867    3868    3868
       1       1       1       1       0       0       0       0       4       0     925    3912    3956    3911    3911
       1       1       1       1       0       0       0       0       4       0     926    3862    3860    3861    3861
       1       1       1       1       0       0       0       0       4       0    1913    2825    2899    2824    2824
! ... 4798 like lines cut
/wb,elem,end               !  done creating elements
/com,*********** Send User Defined Coordinate System(s) ***********
csys,0
toffst,273.15,  ! Temperature offset from absolute zero
/com,*********** Set Reference Temperature ***********
tref,22.
/wb,mat,start              !  starting to send materials
/com,*********** Send Materials ***********
MP,DENS,1,7850,	! kg m^-3
MP,ALPX,1,1.2e-05,	! C^-1
MP,C,1,434,	! J kg^-1 C^-1
MP,KXX,1,60.5,	! W m^-1 C^-1
MP,RSVX,1,1.7e-07,	! kg m^3 A^-2 s^-3
MP,EX,1,200000000000,	! Pa
MP,NUXY,1,0.3,
MP,MURX,1,10000,

/wb,mat,end                !  done sending materials
/com,*********** Send Sheet Properties ***********
sectype,1,shell
secdata,1.e-002
secoff,mid
!************************* Model Summary ********************
!Surface Body, Structural Steel, matid, 1
!************************* End Model Summary ********************
! get the diagonal of the bounding box. Needed later for other things
*get,_xmin,node,,mnloc,x
*get,_ymin,node,,mnloc,y
*get,_zmin,node,,mnloc,z
*get,_xmax,node,,mxloc,x
*get,_ymax,node,,mxloc,y
*get,_zmax,node,,mxloc,z
_ASMDIAG=(_xmax-_xmin)*(_xmax-_xmin)+(_ymax-_ymin)*(_ymax-_ymin)+(_zmax-_zmin)*(_zmax-_zmin)
_ASMDIAG=SQRT(_ASMDIAG)
/wb,contact,start          !  starting to send contact
/wb,contact,end            !  done creating contacts
/golist
/wb,load,start             !  starting to send loads
nsel,all
et,2,14             ! spring element type
/com,*********** Construct Weak Springs, Prototype 1 ***********
*set,_delta,1.07659568547641
type,2
mat,3
real,3
r,3,18.2713820548788
nsel,all
*get,_nspr,ndmx
_nspr=_nspr+1
esel,s,mat,,1
nsle,s,active
*get,_minx,node,0,mnloc,x
*get,_miny,node,0,mnloc,y
*get,_minz,node,0,mnloc,z
*get,_maxx,node,0,mxloc,x
*get,_maxy,node,0,mxloc,y
*get,_maxz,node,0,mxloc,z
*dim,_ntets,arra,8
_ntets(1) = NODE(_minx,_miny,_minz)
_ntets(2) = NODE(_minx,_miny,_maxz)
_ntets(3) = NODE(_minx,_maxy,_minz)
_ntets(4) = NODE(_minx,_maxy,_maxz)
_ntets(5) = NODE(_maxx,_miny,_minz)
_ntets(6) = NODE(_maxx,_miny,_maxz)
_ntets(7) = NODE(_maxx,_maxy,_minz)
_ntets(8) = NODE(_maxx,_maxy,_maxz)
*do,_i,1,8
  n,_nspr,nx(_ntets(_i))+_delta,ny(_ntets(_i)),nz(_ntets(_i))
  e,_ntets(_i),_nspr
  d,_nspr,all
  _nspr=_nspr+1
  n,_nspr,nx(_ntets(_i)),ny(_ntets(_i))+_delta,nz(_ntets(_i))
  e,_ntets(_i),_nspr
  d,_nspr,all
  _nspr=_nspr+1
  n,_nspr,nx(_ntets(_i)),ny(_ntets(_i)),nz(_ntets(_i))+_delta
  e,_ntets(_i),_nspr
  d,_nspr,all
  _nspr=_nspr+1
*enddo
*set,_ntets
nsel,all
esel,all
/gst,on,on
fini
*get,_numnode,node,0,count
*get,_numelem,elem,0,count
/go
/wb,load,end               !  done creating loads
/com,--- Number of total nodes = %_numnode%
/com,--- Number of contact elements = 0
/com,--- Number of spring elements = 24
/com,--- Number of solid elements = 4817
/com,--- Number of total elements = %_numelem%
*get,_wallbsol,active,,time,wall
/com,****************************************************************************
/com,*************************    SOLUTION       ********************************
/com,****************************************************************************
/solu
antype,0                   ! static analysis
solc,on,on                 ! Turn on solution control with ability to use contact time prediction
!eqsl,sparse               ! using sparse solver which is default so no eqsl command needed
cntr,print,1               ! print out contact info and also make no initial contact an error
nldiag,cont,iter           ! print out contact info each equilibrium iteration
resc,,none                 ! Do not keep any restart files
/com,****************************************************
/com,******************* SOLVE FOR LS 1 ****************
/nopr
/gopr
nsub,1,1,1
time,1.
outres,erase
outres,all,none
outres,nsol,all
outres,rsol,all
outres,nload,all
outres,strs,all
outres,epel,all
outres,eppl,all
/nopr
/gopr
stabilize,off                   ! Stabilization turned OFF by user
! *********** WB SOLVE COMMAND ***********
! check interactive state
*get,ANSINTER_,active,,int
*if,ANSINTER_,ne,0,then
/eof
*endif
solve
/com,****************************************************
/com,*************** FINISHED SOLVE FOR LS 1 *************
*set,_DS_PROGRESS          ! turn off progress updates to avoid virus scanning bug
*get,_wallasol,active,,time,wall
/post1
xmlo,ENCODING,ISO-8859-1
xmlo,parm
/xml,parm,xml
fini
/gopr
*get,_walldone,active,,time,wall
_preptime=(_wallbsol-_wallstrt)*3600
_solvtime=(_wallasol-_wallbsol)*3600
_posttime=(_walldone-_wallasol)*3600
_totaltim=(_walldone-_wallstrt)*3600
/wb,file,end               ! done with WB generated input
