/batch
/config,noeldb,1     ! force off writing results to database
*get,_wallstrt,active,,time,wall
! ANSYS input file written by Workbench version 13.0  Release
! File used for geometry attach: C:\Users\admin\Desktop\P_MODEL_files\dp0\Geom\DM\Geom.agdb
/title,P_MODEL--Static Structural (B5)
/com,--- Data in consistent NMM units.
/units,MPA
/nopr
/track,-1
/wb,file,start              !  signify a WB generated input file
/prep7
! Turn off shape checking because checks already performed inside WB mesher.
! See help system for more information.
SHPP,OFF,,NOWARN
/nolist
etcon,set             ! allow ANSYS to choose best KEYOP's for 180x elements
/com,*********** Nodes for the whole assembly ***********
nblock,3
(1i8,3e20.9e3)
       1   -1.980512586E+001   -5.566591049E-007    3.416749102E+000
       2   -2.125787657E+001   -1.233671058E-006    7.572218796E+000
       3   -2.061299277E+001   -4.839873354E-007    2.970693020E+000
       4   -2.064803071E+001   -4.354487463E-007    2.672765291E+000
       5   -1.711803526E+001   -6.071506255E-007    3.726663797E+000
       6   -2.121593394E+001    2.509472408E-008   -1.540303087E-001
       7   -2.101209827E+001   -3.340594367E-007    2.050442167E+000
       8   -2.222977514E+001    5.649345142E-008   -3.467542929E-001
       9   -1.706426190E+001   -6.860048543E-007    4.210667606E+000
      10   -1.712848314E+001   -1.222437995E-006    7.503270673E+000
      11   -1.702729777E+001   -6.621163653E-007    4.064041099E+000
      12   -2.266510438E+001    1.142797028E-007   -7.014437566E-001
      13   -2.109072823E+001   -5.355715527E-008    3.287314717E-001
      14   -2.252084575E+001   -1.333005571E-006    8.181929737E+000
      15   -2.189584023E+001   -1.351231428E-006    8.293799186E+000
      16   -2.061189170E+001   -4.344166010E-007    2.666430027E+000
      17   -2.130073633E+001   -9.256429564E-007    5.681555862E+000
      18   -1.975987115E+001   -4.754727562E-007    2.918430884E+000
      19   -2.128851834E+001   -1.026721108E-006    6.301969081E+000
      20   -1.795001730E+001   -4.861601950E-007    2.984029867E+000
! ... 2530 like lines cut
/wb,elem,start            !  set before creation of elements
/com,*********** Elements for Body 1 "aaad_4192" ***********
et,1,181
keyo,1,3,2
eblock,19,solid
(19i8)
       1       1       1       1       0       0       0       0       4       0       1    2430    2431    2357    2357
       1       1       1       1       0       0       0       0       4       0       2    1895    2192    1852    1852
       1       1       1       1       0       0       0       0       4       0       3    1468    1469    1500    1500
       1       1       1       1       0       0       0       0       4       0       4    1418    1415    1416    1416
       1       1       1       1       0       0       0       0       4       0       5    2533    2534    2538    2515
       1       1       1       1       0       0       0       0       4       0       6    2515    2532    2517    2533
       1       1       1       1       0       0       0       0       4       0       7    2538    2539    2516    2515
       1       1       1       1       0       0       0       0       4       0       8    2516    2531    2532    2515
       1       1       1       1       0       0       0       0       4       0       9    2539    2540    2542    2516
       1       1       1       1       0       0       0       0       4       0      10    2542    2530    2531    2516
       1       1       1       1       0       0       0       0       4       0      11    2540    2541    2536    2542
       1       1       1       1       0       0       0       0       4       0      12    2536    2529    2530    2542
       1       1       1       1       0       0       0       0       4       0      13    2541    2537    2535    2536
       1       1       1       1       0       0       0       0       4       0      14    2541    2526    2527    2537
       1       1       1       1       0       0       0       0       4       0      15    2540    2525    2526    2541
       1       1       1       1       0       0       0       0       4       0      16    2539    2524    2525    2540
       1       1       1       1       0       0       0       0       4       0      17    2538    2523    2524    2539
       1       1       1       1       0       0       0       0       4       0      18    2527    2519    2520    2537
       1       1       1       1       0       0       0       0       4       0      19    2534    2522    2523    2538
       1       1       1       1       0       0       0       0       4       0      20    2537    2520    2521    2535
! ... 1148 like lines cut
/com,*********** Elements for Body 2 "aaad_4192" ***********
et,2,181
keyo,2,3,2
eblock,19,solid
(19i8)
       2       2       2       2       0       0       0       0       4       0    1168    1253    1251    1252    1337
       2       2       2       2       0       0       0       0       4       0    1169    1337    1248    1209    1253
       2       2       2       2       0       0       0       0       4       0    1170    1252    1254    1336    1337
       2       2       2       2       0       0       0       0       4       0    1171    1336    1250    1248    1337
       2       2       2       2       0       0       0       0       4       0    1172    1254    1255    1335    1336
       2       2       2       2       0       0       0       0       4       0    1173    1335    1249    1250    1336
       2       2       2       2       0       0       0       0       4       0    1174    1255    1256    1334    1335
       2       2       2       2       0       0       0       0       4       0    1175    1334    1247    1249    1335
       2       2       2       2       0       0       0       0       4       0    1176    1256    1257    1333    1334
       2       2       2       2       0       0       0       0       4       0    1177    1333    1246    1247    1334
       2       2       2       2       0       0       0       0       4       0    1178    1257    1258    1332    1333
       2       2       2       2       0       0       0       0       4       0    1179    1332    1245    1246    1333
       2       2       2       2       0       0       0       0       4       0    1180    1258    1259    1331    1332
       2       2       2       2       0       0       0       0       4       0    1181    1331    1244    1245    1332
       2       2       2       2       0       0       0       0       4       0    1182    1259    1260    1330    1331
       2       2       2       2       0       0       0       0       4       0    1183    1330    1243    1244    1331
       2       2       2       2       0       0       0       0       4       0    1184    1260    1261    1329    1330
       2       2       2       2       0       0       0       0       4       0    1185    1329    1242    1243    1330
       2       2       2       2       0       0       0       0       4       0    1186    1261    1262    1328    1329
       2       2       2       2       0       0       0       0       4       0    1187    1328    1241    1242    1329
! ... 316 like lines cut
/com,*********** Elements for Body 3 "aaad_4192" ***********
et,3,181
keyo,3,3,2
eblock,19,solid
(19i8)
       3       3       3       3       0       0       0       0       4       0    1503      15     488     354     354
       3       3       3       3       0       0       0       0       4       0    1504     770     769     275     275
       3       3       3       3       0       0       0       0       4       0    1505     610     489     611     611
       3       3       3       3       0       0       0       0       4       0    1506     480     583     481     481
       3       3       3       3       0       0       0       0       4       0    1507     771     274     273     273
       3       3       3       3       0       0       0       0       4       0    1508      92     471      95      95
       3       3       3       3       0       0       0       0       4       0    1509     570     571     484     484
       3       3       3       3       0       0       0       0       4       0    1510     675     765     673     674
       3       3       3       3       0       0       0       0       4       0    1511     765     766     672     673
       3       3       3       3       0       0       0       0       4       0    1512     279     278     766     765
       3       3       3       3       0       0       0       0       4       0    1513      54     743     507     508
       3       3       3       3       0       0       0       0       4       0    1514     743     654     506     507
       3       3       3       3       0       0       0       0       4       0    1515     267     266     654     743
       3       3       3       3       0       0       0       0       4       0    1516     481     567     568     482
       3       3       3       3       0       0       0       0       4       0    1517     567     481     583     566
       3       3       3       3       0       0       0       0       4       0    1518     280     279     765     764
       3       3       3       3       0       0       0       0       4       0    1519     680     762     678     679
       3       3       3       3       0       0       0       0       4       0    1520     283     282     762     761
       3       3       3       3       0       0       0       0       4       0    1521     761     762     680     681
       3       3       3       3       0       0       0       0       4       0    1522     663     775     661     662
! ... 901 like lines cut
/wb,elem,end               !  done creating elements
/com,*********** Send User Defined Coordinate System(s) ***********
csys,0
toffst,273.15,  ! Temperature offset from absolute zero
/com,*********** Set Reference Temperature ***********
tref,22.
/wb,mat,start              !  starting to send materials
/com,*********** Send Materials ***********
MP,DENS,1,7.85e-09,	! tonne mm^-3
MP,ALPX,1,1.2e-05,	! C^-1
MP,C,1,434000000,	! mm^2 s^-2 C^-1
MP,KXX,1,60.5,	! tonne mm s^-3 C^-1
MP,RSVX,1,0.00017,	! ohm mm
MP,EX,1,200000,	! tonne s^-2 mm^-1
MP,NUXY,1,0.3,
MP,MURX,1,10000,

MP,DENS,2,7.85e-09,	! tonne mm^-3
MP,ALPX,2,1.2e-05,	! C^-1
MP,C,2,434000000,	! mm^2 s^-2 C^-1
MP,KXX,2,60.5,	! tonne mm s^-3 C^-1
MP,RSVX,2,0.00017,	! ohm mm
MP,EX,2,200000,	! tonne s^-2 mm^-1
MP,NUXY,2,0.3,
MP,MURX,2,10000,

MP,DENS,3,7.85e-09,	! tonne mm^-3
MP,ALPX,3,1.2e-05,	! C^-1
MP,C,3,434000000,	! mm^2 s^-2 C^-1
MP,KXX,3,60.5,	! tonne mm s^-3 C^-1
MP,RSVX,3,0.00017,	! ohm mm
MP,EX,3,200000,	! tonne s^-2 mm^-1
MP,NUXY,3,0.3,
MP,MURX,3,10000,

/wb,mat,end                !  done sending materials
/com,*********** Send Sheet Properties ***********
sectype,1,shell
secdata,0.1
secoff,mid
sectype,2,shell
secdata,0.1
secoff,mid
sectype,3,shell
secdata,0.1
secoff,mid
!************************* Model Summary ********************
!aaad_4192, Structural Steel, matid, 1
!aaad_4192, Structural Steel, matid, 2
!aaad_4192, Structural Steel, matid, 3
!************************* End Model Summary ********************
! get the diagonal of the bounding box. Needed later for other things
*get,_xmin,node,,mnloc,x
*get,_ymin,node,,mnloc,y
*get,_zmin,node,,mnloc,z
*get,_xmax,node,,mxloc,x
*get,_ymax,node,,mxloc,y
*get,_zmax,node,,mxloc,z
_ASMDIAG=(_xmax-_xmin)*(_xmax-_xmin)+(_ymax-_ymin)*(_ymax-_ymin)+(_zmax-_zmin)*(_zmax-_zmin)
_ASMDIAG=SQRT(_ASMDIAG)
/wb,contact,start          !  starting to send contact
/wb,contact,end            !  done creating contacts
/golist
/wb,load,start             !  starting to send loads
nsel,all
et,4,14             ! spring element type
/com,*********** Construct Weak Springs, Prototype 1 ***********
*set,_delta,0.624194725017751
type,4
mat,5
real,5
r,5,3.59310112554695e-005
nsel,all
*get,_nspr,ndmx
_nspr=_nspr+1
esel,s,mat,,1
nsle,s,active
*get,_minx,node,0,mnloc,x
*get,_miny,node,0,mnloc,y
*get,_minz,node,0,mnloc,z
*get,_maxx,node,0,mxloc,x
*get,_maxy,node,0,mxloc,y
*get,_maxz,node,0,mxloc,z
*dim,_ntets,arra,8
_ntets(1) = NODE(_minx,_miny,_minz)
_ntets(2) = NODE(_minx,_miny,_maxz)
_ntets(3) = NODE(_minx,_maxy,_minz)
_ntets(4) = NODE(_minx,_maxy,_maxz)
_ntets(5) = NODE(_maxx,_miny,_minz)
_ntets(6) = NODE(_maxx,_miny,_maxz)
_ntets(7) = NODE(_maxx,_maxy,_minz)
_ntets(8) = NODE(_maxx,_maxy,_maxz)
*do,_i,1,8
  n,_nspr,nx(_ntets(_i))+_delta,ny(_ntets(_i)),nz(_ntets(_i))
  e,_ntets(_i),_nspr
  d,_nspr,all
  _nspr=_nspr+1
  n,_nspr,nx(_ntets(_i)),ny(_ntets(_i))+_delta,nz(_ntets(_i))
  e,_ntets(_i),_nspr
  d,_nspr,all
  _nspr=_nspr+1
  n,_nspr,nx(_ntets(_i)),ny(_ntets(_i)),nz(_ntets(_i))+_delta
  e,_ntets(_i),_nspr
  d,_nspr,all
  _nspr=_nspr+1
*enddo
*set,_ntets
nsel,all
esel,all
/com,*********** Construct Weak Springs, Prototype 2 ***********
*set,_delta,0.27636613477855
type,4
mat,6
real,6
r,6,4.08174836213798e-005
nsel,all
*get,_nspr,ndmx
_nspr=_nspr+1
esel,s,mat,,2
nsle,s,active
*get,_minx,node,0,mnloc,x
*get,_miny,node,0,mnloc,y
*get,_minz,node,0,mnloc,z
*get,_maxx,node,0,mxloc,x
*get,_maxy,node,0,mxloc,y
*get,_maxz,node,0,mxloc,z
*dim,_ntets,arra,8
_ntets(1) = NODE(_minx,_miny,_minz)
_ntets(2) = NODE(_minx,_miny,_maxz)
_ntets(3) = NODE(_minx,_maxy,_minz)
_ntets(4) = NODE(_minx,_maxy,_maxz)
_ntets(5) = NODE(_maxx,_miny,_minz)
_ntets(6) = NODE(_maxx,_miny,_maxz)
_ntets(7) = NODE(_maxx,_maxy,_minz)
_ntets(8) = NODE(_maxx,_maxy,_maxz)
*do,_i,1,8
  n,_nspr,nx(_ntets(_i))+_delta,ny(_ntets(_i)),nz(_ntets(_i))
  e,_ntets(_i),_nspr
  d,_nspr,all
  _nspr=_nspr+1
  n,_nspr,nx(_ntets(_i)),ny(_ntets(_i))+_delta,nz(_ntets(_i))
  e,_ntets(_i),_nspr
  d,_nspr,all
  _nspr=_nspr+1
  n,_nspr,nx(_ntets(_i)),ny(_ntets(_i)),nz(_ntets(_i))+_delta
  e,_ntets(_i),_nspr
  d,_nspr,all
  _nspr=_nspr+1
*enddo
*set,_ntets
nsel,all
esel,all
/com,*********** Construct Weak Springs, Prototype 3 ***********
*set,_delta,0.622188915650814
type,4
mat,7
real,7
r,7,3.73996052122037e-005
nsel,all
*get,_nspr,ndmx
_nspr=_nspr+1
esel,s,mat,,3
nsle,s,active
*get,_minx,node,0,mnloc,x
*get,_miny,node,0,mnloc,y
*get,_minz,node,0,mnloc,z
*get,_maxx,node,0,mxloc,x
*get,_maxy,node,0,mxloc,y
*get,_maxz,node,0,mxloc,z
*dim,_ntets,arra,8
_ntets(1) = NODE(_minx,_miny,_minz)
_ntets(2) = NODE(_minx,_miny,_maxz)
_ntets(3) = NODE(_minx,_maxy,_minz)
_ntets(4) = NODE(_minx,_maxy,_maxz)
_ntets(5) = NODE(_maxx,_miny,_minz)
_ntets(6) = NODE(_maxx,_miny,_maxz)
_ntets(7) = NODE(_maxx,_maxy,_minz)
_ntets(8) = NODE(_maxx,_maxy,_maxz)
*do,_i,1,8
  n,_nspr,nx(_ntets(_i))+_delta,ny(_ntets(_i)),nz(_ntets(_i))
  e,_ntets(_i),_nspr
  d,_nspr,all
  _nspr=_nspr+1
  n,_nspr,nx(_ntets(_i)),ny(_ntets(_i))+_delta,nz(_ntets(_i))
  e,_ntets(_i),_nspr
  d,_nspr,all
  _nspr=_nspr+1
  n,_nspr,nx(_ntets(_i)),ny(_ntets(_i)),nz(_ntets(_i))+_delta
  e,_ntets(_i),_nspr
  d,_nspr,all
  _nspr=_nspr+1
*enddo
*set,_ntets
nsel,all
esel,all
/gst,on,on
fini
*get,_numnode,node,0,count
*get,_numelem,elem,0,count
/go
/wb,load,end               !  done creating loads
/com,--- Number of total nodes = %_numnode%
/com,--- Number of contact elements = 0
/com,--- Number of spring elements = 72
/com,--- Number of solid elements = 2422
/com,--- Number of total elements = %_numelem%
*get,_wallbsol,active,,time,wall
/com,****************************************************************************
/com,*************************    SOLUTION       ********************************
/com,****************************************************************************
/solu
antype,0                   ! static analysis
solc,on,on                 ! Turn on solution control with ability to use contact time prediction
!eqsl,sparse               ! using sparse solver which is default so no eqsl command needed
cntr,print,1               ! print out contact info and also make no initial contact an error
nldiag,cont,iter           ! print out contact info each equilibrium iteration
resc,,none                 ! Do not keep any restart files
/com,****************************************************
/com,******************* SOLVE FOR LS 1 ****************
/nopr
/gopr
nsub,1,1,1
time,1.
outres,erase
outres,all,none
outres,nsol,all
outres,rsol,all
outres,nload,all
outres,strs,all
outres,epel,all
outres,eppl,all
/nopr
/gopr
stabilize,off                   ! Stabilization turned OFF by user
! *********** WB SOLVE COMMAND ***********
! check interactive state
*get,ANSINTER_,active,,int
*if,ANSINTER_,ne,0,then
/eof
*endif
solve
/com,****************************************************
/com,*************** FINISHED SOLVE FOR LS 1 *************
*set,_DS_PROGRESS          ! turn off progress updates to avoid virus scanning bug
*get,_wallasol,active,,time,wall
/post1
xmlo,ENCODING,ISO-8859-1
xmlo,parm
/xml,parm,xml
fini
/gopr
*get,_walldone,active,,time,wall
_preptime=(_wallbsol-_wallstrt)*3600
_solvtime=(_wallasol-_wallbsol)*3600
_posttime=(_walldone-_wallasol)*3600
_totaltim=(_walldone-_wallstrt)*3600
/wb,file,end               ! done with WB generated input
